C8H10N4O2
APtclcactv06131405312D 0   0.00000     0.00000
 
 24 25  0  0  0  0  0  0  0  0999 V2000
    6.1279   -0.0000    0.0000 C   0  0  0  0  0  0  0  0  0  0  0  0
    5.8550    1.7553    0.0000 C   0  0  0  0  0  0  0  0  0  0  0  0
    3.7321   -2.0000    0.0000 C   0  0  0  0  0  0  0  0  0  0  0  0
    2.0000    1.0000    0.0000 C   0  0  0  0  0  0  0  0  0  0  0  0
    3.7321    2.0000    0.0000 O   0  0  0  0  0  0  0  0  0  0  0  0
    2.0000   -1.0000    0.0000 O   0  0  0  0  0  0  0  0  0  0  0  0
    3.7321    1.0000    0.0000 C   0  0  0  0  0  0  0  0  0  0  0  0
    2.8660   -0.5000    0.0000 C   0  0  0  0  0  0  0  0  0  0  0  0
    4.5981    0.5000    0.0000 C   0  0  0  0  0  0  0  0  0  0  0  0
    4.5981   -0.5000    0.0000 C   0  0  0  0  0  0  0  0  0  0  0  0
    5.5443   -0.8047    0.0000 N   0  0  0  0  0  0  0  0  0  0  0  0
    3.7321   -1.0000    0.0000 N   0  0  0  0  0  0  0  0  0  0  0  0
    2.8660    0.5000    0.0000 N   0  0  0  0  0  0  0  0  0  0  0  0
    5.5443    0.8047    0.0000 N   0  0  0  0  0  0  0  0  0  0  0  0
    6.7479   -0.0000    0.0000 H   0  0  0  0  0  0  0  0  0  0  0  0
    6.4443    1.5626    0.0000 H   0  0  0  0  0  0  0  0  0  0  0  0
    6.0476    2.3446    0.0000 H   0  0  0  0  0  0  0  0  0  0  0  0
    5.2656    1.9479    0.0000 H   0  0  0  0  0  0  0  0  0  0  0  0
    3.1121   -2.0000    0.0000 H   0  0  0  0  0  0  0  0  0  0  0  0
    3.7321   -2.6200    0.0000 H   0  0  0  0  0  0  0  0  0  0  0  0
    4.3521   -2.0000    0.0000 H   0  0  0  0  0  0  0  0  0  0  0  0
    2.3100    1.5369    0.0000 H   0  0  0  0  0  0  0  0  0  0  0  0
    1.4631    1.3100    0.0000 H   0  0  0  0  0  0  0  0  0  0  0  0
    1.6900    0.4631    0.0000 H   0  0  0  0  0  0  0  0  0  0  0  0
  9 10  2  0  0  0  0
  7  9  1  0  0  0  0
  9 14  1  0  0  0  0
 10 12  1  0  0  0  0
 10 11  1  0  0  0  0
  7 13  1  0  0  0  0
  5  7  2  0  0  0  0
  1 14  1  0  0  0  0
  2 14  1  0  0  0  0
  8 12  1  0  0  0  0
  3 12  1  0  0  0  0
  4 13  1  0  0  0  0
  6  8  2  0  0  0  0
  1 11  2  0  0  0  0
  8 13  1  0  0  0  0
  1 15  1  0  0  0  0
  2 16  1  0  0  0  0
  2 17  1  0  0  0  0
  2 18  1  0  0  0  0
  3 19  1  0  0  0  0
  3 20  1  0  0  0  0
  3 21  1  0  0  0  0
  4 22  1  0  0  0  0
  4 23  1  0  0  0  0
  4 24  1  0  0  0  0
M  END
$$$$
